<?xml version="1.0" encoding="UTF-8"?>

<!-- generated on 2022-06-07 11:58:32 by Eclipse SUMO netconvert Version v1_13_0+0614-4ee73fa3635
<configuration xmlns:xsi="http://www.w3.org/2001/XMLSchema-instance" xsi:noNamespaceSchemaLocation="http://sumo.dlr.de/xsd/netconvertConfiguration.xsd">

    <input>
        <type-files value="/home/rajhesh/Desktop/adhoc/sumo/data/typemap/osmNetconvert.typ.xml,/home/rajhesh/Desktop/adhoc/sumo/data/typemap/osmNetconvertUrbanDe.typ.xml,/home/rajhesh/Desktop/adhoc/sumo/data/typemap/osmNetconvertPedestrians.typ.xml"/>
        <osm-files value="osm_bbox.osm.xml.gz"/>
    </input>

    <output>
        <output-file value="osm.net.xml"/>
        <output.street-names value="true"/>
        <output.original-names value="true"/>
    </output>

    <projection>
        <proj.utm value="true"/>
    </projection>

    <processing>
        <geometry.remove value="true"/>
        <roundabouts.guess value="true"/>
        <lefthand value="true"/>
    </processing>

    <tls_building>
        <tls.discard-simple value="true"/>
        <tls.join value="true"/>
        <tls.guess-signals value="true"/>
        <tls.default-type value="actuated"/>
    </tls_building>

    <ramp_guessing>
        <ramps.guess value="true"/>
    </ramp_guessing>

    <junctions>
        <junctions.join value="true"/>
        <junctions.corner-detail value="5"/>
    </junctions>

    <pedestrian>
        <crossings.guess value="true"/>
    </pedestrian>

    <formats>
        <osm.sidewalks value="true"/>
    </formats>

    <report>
        <verbose value="true"/>
    </report>

</configuration>
-->

<net version="1.9" junctionCornerDetail="5" walkingareas="true" lefthand="true" limitTurnSpeed="5.50" xmlns:xsi="http://www.w3.org/2001/XMLSchema-instance" xsi:noNamespaceSchemaLocation="http://sumo.dlr.de/xsd/net_file.xsd">

    <location netOffset="-716690.16,-1224924.89" convBoundary="0.00,-0.00,2182.00,961.38" origBoundary="76.983734,11.074359,77.003671,11.083074" projParameter="+proj=utm +zone=43 +ellps=WGS84 +datum=WGS84 +units=m +no_defs"/>

    <type id="highway.bridleway" priority="1" numLanes="1" speed="2.78" allow="pedestrian" oneway="1" width="2.00"/>
    <type id="highway.bus_guideway" priority="1" numLanes="1" speed="13.89" allow="bus" oneway="1"/>
    <type id="highway.cycleway" priority="1" numLanes="1" speed="8.33" allow="bicycle" oneway="0" width="1.00"/>
    <type id="highway.footway" priority="1" numLanes="1" speed="2.78" allow="pedestrian" oneway="1" width="2.00"/>
    <type id="highway.ford" priority="1" numLanes="1" speed="2.78" allow="army" oneway="0"/>
    <type id="highway.living_street" priority="2" numLanes="1" speed="2.78" disallow="tram rail_urban rail rail_electric rail_fast ship" oneway="0"/>
    <type id="highway.motorway" priority="14" numLanes="2" speed="27.78" allow="private emergency authority army vip passenger hov taxi bus coach delivery truck trailer motorcycle evehicle custom1 custom2" oneway="1"/>
    <type id="highway.motorway_link" priority="9" numLanes="1" speed="16.67" allow="private emergency authority army vip passenger hov taxi bus coach delivery truck trailer motorcycle evehicle custom1 custom2" oneway="1"/>
    <type id="highway.path" priority="1" numLanes="1" speed="2.78" allow="pedestrian bicycle" oneway="0" width="2.00"/>
    <type id="highway.pedestrian" priority="1" numLanes="1" speed="2.78" allow="pedestrian" oneway="1" width="2.00"/>
    <type id="highway.primary" priority="12" numLanes="2" speed="13.89" disallow="pedestrian tram rail_urban rail rail_electric rail_fast ship" oneway="0" sidewalkWidth="3.00"/>
    <type id="highway.primary_link" priority="7" numLanes="1" speed="13.89" disallow="pedestrian tram rail_urban rail rail_electric rail_fast ship" oneway="0" sidewalkWidth="3.00"/>
    <type id="highway.raceway" priority="15" numLanes="2" speed="83.33" allow="vip" oneway="0"/>
    <type id="highway.residential" priority="3" numLanes="1" speed="13.89" disallow="pedestrian tram rail_urban rail rail_electric rail_fast ship" oneway="0" sidewalkWidth="2.00"/>
    <type id="highway.secondary" priority="11" numLanes="1" speed="13.89" disallow="pedestrian tram rail_urban rail rail_electric rail_fast ship" oneway="0" sidewalkWidth="3.00"/>
    <type id="highway.secondary_link" priority="6" numLanes="1" speed="13.89" disallow="pedestrian tram rail_urban rail rail_electric rail_fast ship" oneway="0" sidewalkWidth="3.00"/>
    <type id="highway.service" priority="1" numLanes="1" speed="5.56" allow="pedestrian delivery bicycle" oneway="0"/>
    <type id="highway.stairs" priority="1" numLanes="1" speed="1.39" allow="pedestrian" oneway="1" width="2.00"/>
    <type id="highway.step" priority="1" numLanes="1" speed="1.39" allow="pedestrian" oneway="1" width="2.00"/>
    <type id="highway.steps" priority="1" numLanes="1" speed="1.39" allow="pedestrian" oneway="1" width="2.00"/>
    <type id="highway.tertiary" priority="10" numLanes="1" speed="13.89" disallow="pedestrian tram rail_urban rail rail_electric rail_fast ship" oneway="0" sidewalkWidth="3.00"/>
    <type id="highway.tertiary_link" priority="5" numLanes="1" speed="13.89" disallow="pedestrian tram rail_urban rail rail_electric rail_fast ship" oneway="0" sidewalkWidth="2.00"/>
    <type id="highway.track" priority="1" numLanes="1" speed="5.56" allow="pedestrian motorcycle moped bicycle" oneway="0"/>
    <type id="highway.trunk" priority="13" numLanes="2" speed="13.89" disallow="pedestrian bicycle tram rail_urban rail rail_electric rail_fast ship" oneway="0"/>
    <type id="highway.trunk_link" priority="8" numLanes="1" speed="13.89" disallow="pedestrian bicycle tram rail_urban rail rail_electric rail_fast ship" oneway="0"/>
    <type id="highway.unclassified" priority="4" numLanes="1" speed="13.89" disallow="pedestrian tram rail_urban rail rail_electric rail_fast ship" oneway="0" sidewalkWidth="2.00"/>
    <type id="highway.unsurfaced" priority="1" numLanes="1" speed="8.33" disallow="tram rail_urban rail rail_electric rail_fast ship" oneway="0"/>
    <type id="railway.highspeed" priority="21" numLanes="1" speed="69.44" allow="rail_fast" oneway="1"/>
    <type id="railway.light_rail" priority="19" numLanes="1" speed="27.78" allow="rail_urban" oneway="1"/>
    <type id="railway.preserved" priority="16" numLanes="1" speed="27.78" allow="rail" oneway="1"/>
    <type id="railway.rail" priority="20" numLanes="1" speed="44.44" allow="rail" oneway="1"/>
    <type id="railway.subway" priority="18" numLanes="1" speed="27.78" allow="rail_urban" oneway="1"/>
    <type id="railway.tram" priority="17" numLanes="1" speed="13.89" allow="tram" oneway="1"/>

    <edge id=":1829603282_0" function="internal">
        <lane id=":1829603282_0_0" index="0" disallow="pedestrian tram rail_urban rail rail_electric rail_fast ship" speed="13.89" length="14.53" shape="411.87,81.67 409.73,96.04"/>
    </edge>
    <edge id=":1829603282_1" function="internal">
        <lane id=":1829603282_1_0" index="0" disallow="pedestrian tram rail_urban rail rail_electric rail_fast ship" speed="7.97" length="4.19" shape="411.87,81.67 411.79,85.58 411.89,85.83"/>
    </edge>
    <edge id=":1829603282_2" function="internal">
        <lane id=":1829603282_2_0" index="0" disallow="pedestrian tram rail_urban rail rail_electric rail_fast ship" speed="3.65" length="1.44" shape="411.87,81.67 412.46,82.98"/>
    </edge>
    <edge id=":1829603282_9" function="internal">
        <lane id=":1829603282_9_0" index="0" disallow="pedestrian tram rail_urban rail rail_electric rail_fast ship" speed="7.97" length="10.07" shape="411.89,85.83 413.00,88.56 415.48,90.61 419.24,91.71"/>
    </edge>
    <edge id=":1829603282_10" function="internal">
        <lane id=":1829603282_10_0" index="0" disallow="pedestrian tram rail_urban rail rail_electric rail_fast ship" speed="3.65" length="3.23" shape="412.46,82.98 413.19,83.50 414.04,83.24 415.03,82.18"/>
    </edge>
    <edge id=":1829603282_3" function="internal">
        <lane id=":1829603282_3_0" index="0" disallow="pedestrian tram rail_urban rail rail_electric rail_fast ship" speed="6.47" length="9.03" shape="419.69,88.54 417.31,87.84 415.74,86.55 414.98,84.66 415.03,82.18"/>
    </edge>
    <edge id=":1829603282_4" function="internal">
        <lane id=":1829603282_4_0" index="0" disallow="pedestrian tram rail_urban rail rail_electric rail_fast ship" speed="7.99" length="14.25" shape="419.69,88.54 415.78,88.54 412.81,89.78 410.80,92.29 409.73,96.04"/>
    </edge>
    <edge id=":1829603282_5" function="internal">
        <lane id=":1829603282_5_0" index="0" disallow="pedestrian tram rail_urban rail rail_electric rail_fast ship" speed="3.65" length="4.67" shape="419.69,88.54 418.39,89.16 417.88,89.90 418.16,90.75 419.24,91.71"/>
    </edge>
    <edge id=":1829603282_6" function="internal">
        <lane id=":1829603282_6_0" index="0" disallow="pedestrian tram rail_urban rail rail_electric rail_fast ship" speed="6.49" length="9.05" shape="412.91,96.47 413.58,94.08 414.86,92.50 416.75,91.70 419.24,91.71"/>
    </edge>
    <edge id=":1829603282_7" function="internal">
        <lane id=":1829603282_7_0" index="0" disallow="pedestrian tram rail_urban rail rail_electric rail_fast ship" speed="13.89" length="14.44" shape="412.91,96.47 415.03,82.18"/>
    </edge>
    <edge id=":1829603282_8" function="internal">
        <lane id=":1829603282_8_0" index="0" disallow="pedestrian tram rail_urban rail rail_electric rail_fast ship" speed="3.65" length="1.44" shape="412.91,96.47 412.27,95.17"/>
    </edge>
    <edge id=":1829603282_11" function="internal">
        <lane id=":1829603282_11_0" index="0" disallow="pedestrian tram rail_urban rail rail_electric rail_fast ship" speed="3.65" length="3.23" shape="412.27,95.17 411.53,94.67 410.69,94.96 409.73,96.04"/>
    </edge>
    <edge id=":1829603288_0" function="internal">
        <lane id=":1829603288_0_0" index="0" disallow="pedestrian tram rail_urban rail rail_electric rail_fast ship" speed="6.47" length="9.03" shape="742.09,422.29 741.44,424.69 740.18,426.28 738.30,427.09 735.82,427.09"/>
    </edge>
    <edge id=":1829603288_1" function="internal">
        <lane id=":1829603288_1_0" index="0" disallow="pedestrian tram rail_urban rail rail_electric rail_fast ship" speed="13.89" length="14.40" shape="742.09,422.29 740.31,436.58"/>
    </edge>
    <edge id=":1829603288_2" function="internal">
        <lane id=":1829603288_2_0" index="0" disallow="pedestrian tram rail_urban rail rail_electric rail_fast ship" speed="3.65" length="1.44" shape="742.09,422.29 742.74,423.58"/>
    </edge>
    <edge id=":1829603288_9" function="internal">
        <lane id=":1829603288_9_0" index="0" disallow="pedestrian tram rail_urban rail rail_electric rail_fast ship" speed="3.65" length="3.23" shape="742.74,423.58 743.48,424.08 744.32,423.78 745.26,422.69"/>
    </edge>
    <edge id=":1829603288_3" function="internal">
        <lane id=":1829603288_3_0" index="0" disallow="pedestrian tram rail_urban rail rail_electric rail_fast ship" speed="13.89" length="14.40" shape="743.49,436.98 745.26,422.69"/>
    </edge>
    <edge id=":1829603288_4" function="internal">
        <lane id=":1829603288_4_0" index="0" disallow="pedestrian tram rail_urban rail rail_electric rail_fast ship" speed="8.06" length="4.04" shape="743.49,436.98 743.41,433.12 743.34,432.96"/>
    </edge>
    <edge id=":1829603288_5" function="internal">
        <lane id=":1829603288_5_0" index="0" disallow="pedestrian tram rail_urban rail rail_electric rail_fast ship" speed="3.65" length="1.44" shape="743.49,436.98 742.84,435.69"/>
    </edge>
    <edge id=":1829603288_10" function="internal">
        <lane id=":1829603288_10_0" index="0" disallow="pedestrian tram rail_urban rail rail_electric rail_fast ship" speed="8.06" length="10.18" shape="743.34,432.96 742.11,430.18 739.58,428.17 735.82,427.09"/>
    </edge>
    <edge id=":1829603288_11" function="internal">
        <lane id=":1829603288_11_0" index="0" disallow="pedestrian tram rail_urban rail rail_electric rail_fast ship" speed="3.65" length="3.23" shape="742.84,435.69 742.10,435.19 741.25,435.49 740.31,436.58"/>
    </edge>
    <edge id=":1829603288_6" function="internal">
        <lane id=":1829603288_6_0" index="0" disallow="pedestrian tram rail_urban rail rail_electric rail_fast ship" speed="6.57" length="9.12" shape="735.37,430.26 737.79,430.95 739.42,432.24 740.26,434.12 740.31,436.58"/>
    </edge>
    <edge id=":1829603288_7" function="internal">
        <lane id=":1829603288_7_0" index="0" disallow="pedestrian tram rail_urban rail rail_electric rail_fast ship" speed="7.97" length="14.26" shape="735.37,430.26 739.29,430.25 742.24,428.99 744.24,426.47 745.26,422.69"/>
    </edge>
    <edge id=":1829603288_8" function="internal">
        <lane id=":1829603288_8_0" index="0" disallow="pedestrian tram rail_urban rail rail_electric rail_fast ship" speed="3.65" length="4.67" shape="735.37,430.26 736.67,429.63 737.18,428.90 736.90,428.05 735.82,427.09"/>
    </edge>
    <edge id=":1829603291_0" function="internal">
        <lane id=":1829603291_0_0" index="0" disallow="pedestrian tram rail_urban rail rail_electric rail_fast ship" speed="13.89" length="14.40" shape="384.73,282.83 382.84,297.11"/>
    </edge>
    <edge id=":1829603291_1" function="internal">
        <lane id=":1829603291_1_0" index="0" disallow="pedestrian tram rail_urban rail rail_electric rail_fast ship" speed="7.99" length="4.07" shape="384.73,282.83 384.77,286.73 384.84,286.89"/>
    </edge>
    <edge id=":1829603291_2" function="internal">
        <lane id=":1829603291_2_0" index="0" disallow="pedestrian tram rail_urban rail rail_electric rail_fast ship" speed="3.65" length="1.44" shape="384.73,282.83 385.37,284.13"/>
    </edge>
    <edge id=":1829603291_9" function="internal">
        <lane id=":1829603291_9_0" index="0" disallow="pedestrian tram rail_urban rail rail_electric rail_fast ship" speed="7.99" length="10.15" shape="384.84,286.89 386.05,289.68 388.58,291.66 392.34,292.69"/>
    </edge>
    <edge id=":1829603291_10" function="internal">
        <lane id=":1829603291_10_0" index="0" disallow="pedestrian tram rail_urban rail rail_electric rail_fast ship" speed="3.65" length="3.23" shape="385.37,284.13 386.11,284.63 386.95,284.34 387.90,283.25"/>
    </edge>
    <edge id=":1829603291_3" function="internal">
        <lane id=":1829603291_3_0" index="0" disallow="pedestrian tram rail_urban rail rail_electric rail_fast ship" speed="6.49" length="9.03" shape="392.74,289.51 390.34,288.86 388.74,287.60 387.93,285.73 387.90,283.25"/>
    </edge>
    <edge id=":1829603291_4" function="internal">
        <lane id=":1829603291_4_0" index="0" disallow="pedestrian tram rail_urban rail rail_electric rail_fast ship" speed="8.03" length="14.20" shape="392.74,289.51 388.84,289.58 385.89,290.86 383.89,293.37 382.84,297.11"/>
    </edge>
    <edge id=":1829603291_5" function="internal">
        <lane id=":1829603291_5_0" index="0" disallow="pedestrian tram rail_urban rail rail_electric rail_fast ship" speed="3.65" length="4.67" shape="392.74,289.51 391.45,290.16 390.95,290.90 391.25,291.74 392.34,292.69"/>
    </edge>
    <edge id=":1829603291_6" function="internal">
        <lane id=":1829603291_6_0" index="0" disallow="pedestrian tram rail_urban rail rail_electric rail_fast ship" speed="6.54" length="9.07" shape="386.01,297.53 386.68,295.15 387.96,293.55 389.85,292.73 392.34,292.69"/>
    </edge>
    <edge id=":1829603291_7" function="internal">
        <lane id=":1829603291_7_0" index="0" disallow="pedestrian tram rail_urban rail rail_electric rail_fast ship" speed="13.89" length="14.40" shape="386.01,297.53 387.90,283.25"/>
    </edge>
    <edge id=":1829603291_8" function="internal">
        <lane id=":1829603291_8_0" index="0" disallow="pedestrian tram rail_urban rail rail_electric rail_fast ship" speed="3.65" length="1.44" shape="386.01,297.53 385.38,296.23"/>
    </edge>
    <edge id=":1829603291_11" function="internal">
        <lane id=":1829603291_11_0" index="0" disallow="pedestrian tram rail_urban rail rail_electric rail_fast ship" speed="3.65" length="3.23" shape="385.38,296.23 384.64,295.73 383.79,296.02 382.84,297.11"/>
    </edge>
    <edge id=":1829603297_0" function="internal">
        <lane id=":1829603297_0_0" index="0" disallow="pedestrian tram rail_urban rail rail_electric rail_fast ship" speed="6.45" length="9.03" shape="735.25,477.32 734.59,479.72 733.33,481.31 731.45,482.09 728.97,482.07"/>
    </edge>
    <edge id=":1829603297_1" function="internal">
        <lane id=":1829603297_1_0" index="0" disallow="pedestrian tram rail_urban rail rail_electric rail_fast ship" speed="13.89" length="14.40" shape="735.25,477.32 733.47,491.61"/>
    </edge>
    <edge id=":1829603297_2" function="internal">
        <lane id=":1829603297_2_0" index="0" disallow="pedestrian tram rail_urban rail rail_electric rail_fast ship" speed="3.65" length="1.44" shape="735.25,477.32 735.89,478.61"/>
    </edge>
    <edge id=":1829603297_9" function="internal">
        <lane id=":1829603297_9_0" index="0" disallow="pedestrian tram rail_urban rail rail_electric rail_fast ship" speed="3.65" length="3.23" shape="735.89,478.61 736.64,479.11 737.48,478.81 738.42,477.72"/>
    </edge>
    <edge id=":1829603297_3" function="internal">
        <lane id=":1829603297_3_0" index="0" disallow="pedestrian tram rail_urban rail rail_electric rail_fast ship" speed="13.89" length="14.40" shape="736.64,492.01 738.42,477.72"/>
    </edge>
    <edge id=":1829603297_4" function="internal">
        <lane id=":1829603297_4_0" index="0" disallow="pedestrian tram rail_urban rail rail_electric rail_fast ship" speed="8.09" length="4.02" shape="736.64,492.01 736.57,488.16 736.50,488.00"/>
    </edge>
    <edge id=":1829603297_5" function="internal">
        <lane id=":1829603297_5_0" index="0" disallow="pedestrian tram rail_urban rail rail_electric rail_fast ship" speed="3.65" length="1.44" shape="736.64,492.01 736.00,490.72"/>
    </edge>
    <edge id=":1829603297_10" function="internal">
        <lane id=":1829603297_10_0" index="0" disallow="pedestrian tram rail_urban rail rail_electric rail_fast ship" speed="8.09" length="10.21" shape="736.50,488.00 735.26,485.22 732.73,483.19 728.97,482.07"/>
    </edge>
    <edge id=":1829603297_11" function="internal">
        <lane id=":1829603297_11_0" index="0" disallow="pedestrian tram rail_urban rail rail_electric rail_fast ship" speed="3.65" length="3.23" shape="736.00,490.72 735.25,490.22 734.41,490.52 733.47,491.61"/>
    </edge>
    <edge id=":1829603297_6" function="internal">
        <lane id=":1829603297_6_0" index="0" disallow="pedestrian tram rail_urban rail rail_electric rail_fast ship" speed="6.62" length="9.18" shape="728.48,485.23 730.92,485.96 732.57,487.26 733.41,489.15 733.47,491.61"/>
    </edge>
    <edge id=":1829603297_7" function="internal">
        <lane id=":1829603297_7_0" index="0" disallow="pedestrian tram rail_urban rail rail_electric rail_fast ship" speed="7.95" length="14.30" shape="728.48,485.23 732.42,485.27 735.39,484.03 737.39,481.51 738.42,477.72"/>
    </edge>
    <edge id=":1829603297_8" function="internal">
        <lane id=":1829603297_8_0" index="0" disallow="pedestrian tram rail_urban rail rail_electric rail_fast ship" speed="3.65" length="4.67" shape="728.48,485.23 729.79,484.62 730.31,483.89 730.03,483.04 728.97,482.07"/>
    </edge>
    <edge id=":1829603301_0" function="internal">
        <lane id=":1829603301_0_0" index="0" disallow="pedestrian tram rail_urban rail rail_electric rail_fast ship" speed="6.52" length="9.05" shape="527.53,448.38 526.86,450.78 525.59,452.38 523.72,453.20 521.25,453.24"/>
    </edge>
    <edge id=":1829603301_1" function="internal">
        <lane id=":1829603301_1_0" index="0" disallow="pedestrian tram rail_urban rail rail_electric rail_fast ship" speed="8.00" length="14.21" shape="527.53,448.38 527.57,452.28 528.85,455.22 531.37,457.21 535.13,458.24"/>
    </edge>
    <edge id=":1829603301_2" function="internal">
        <lane id=":1829603301_2_0" index="0" disallow="pedestrian tram rail_urban rail rail_electric rail_fast ship" speed="3.65" length="4.67" shape="527.53,448.38 528.17,449.68 528.91,450.18 529.75,449.89 530.70,448.80"/>
    </edge>
    <edge id=":1829603301_3" function="internal">
        <lane id=":1829603301_3_0" index="0" disallow="pedestrian tram rail_urban rail rail_electric rail_fast ship" speed="6.50" length="9.03" shape="535.53,455.07 533.15,454.41 531.54,453.15 530.73,451.28 530.70,448.80"/>
    </edge>
    <edge id=":1829603301_4" function="internal">
        <lane id=":1829603301_4_0" index="0" disallow="pedestrian tram rail_urban rail rail_electric rail_fast ship" speed="13.89" length="14.40" shape="535.53,455.07 521.25,453.24"/>
    </edge>
    <edge id=":1829603301_5" function="internal">
        <lane id=":1829603301_5_0" index="0" disallow="pedestrian tram rail_urban rail rail_electric rail_fast ship" speed="3.65" length="1.44" shape="535.53,455.07 534.24,455.71"/>
    </edge>
    <edge id=":1829603301_9" function="internal">
        <lane id=":1829603301_9_0" index="0" disallow="pedestrian tram rail_urban rail rail_electric rail_fast ship" speed="3.65" length="3.23" shape="534.24,455.71 533.74,456.45 534.04,457.30 535.13,458.24"/>
    </edge>
    <edge id=":1829603301_6" function="internal">
        <lane id=":1829603301_6_0" index="0" disallow="pedestrian tram rail_urban rail rail_electric rail_fast ship" speed="13.89" length="14.40" shape="520.84,456.42 535.13,458.24"/>
    </edge>
    <edge id=":1829603301_7" function="internal">
        <lane id=":1829603301_7_0" index="0" disallow="pedestrian tram rail_urban rail rail_electric rail_fast ship" speed="8.01" length="4.06" shape="520.84,456.42 524.73,456.36 524.89,456.29"/>
    </edge>
    <edge id=":1829603301_8" function="internal">
        <lane id=":1829603301_8_0" index="0" disallow="pedestrian tram rail_urban rail rail_electric rail_fast ship" speed="3.65" length="1.44" shape="520.84,456.42 522.13,455.78"/>
    </edge>
    <edge id=":1829603301_10" function="internal">
        <lane id=":1829603301_10_0" index="0" disallow="pedestrian tram rail_urban rail rail_electric rail_fast ship" speed="8.01" length="10.14" shape="524.89,456.29 527.66,455.07 529.66,452.55 530.70,448.80"/>
    </edge>
    <edge id=":1829603301_11" function="internal">
        <lane id=":1829603301_11_0" index="0" disallow="pedestrian tram rail_urban rail rail_electric rail_fast ship" speed="3.65" length="3.23" shape="522.13,455.78 522.63,455.03 522.34,454.19 521.25,453.24"/>
    </edge>
    <edge id=":1829603312_0" function="internal">
        <lane id=":1829603312_0_0" index="0" disallow="pedestrian tram rail_urban rail rail_electric rail_fast ship" speed="6.48" length="9.03" shape="635.32,791.76 632.85,791.89 630.93,791.19 629.58,789.67 628.80,787.32"/>
    </edge>
    <edge id=":1829603312_1" function="internal">
        <lane id=":1829603312_1_0" index="0" disallow="pedestrian tram rail_urban rail rail_electric rail_fast ship" speed="11.11" length="14.35" shape="635.32,791.76 621.29,794.76"/>
    </edge>
    <edge id=":1829603312_2" function="internal">
        <lane id=":1829603312_2_0" index="0" disallow="pedestrian tram rail_urban rail rail_electric rail_fast ship" speed="3.65" length="1.44" shape="635.32,791.76 634.30,792.78"/>
    </edge>
    <edge id=":1829603312_9" function="internal">
        <lane id=":1829603312_9_0" index="0" disallow="pedestrian tram rail_urban rail rail_electric rail_fast ship" speed="3.65" length="3.23" shape="634.30,792.78 634.06,793.64 634.61,794.35 635.94,794.90"/>
    </edge>
    <edge id=":1829603312_3" function="internal">
        <lane id=":1829603312_3_0" index="0" disallow="pedestrian tram rail_urban rail rail_electric rail_fast ship" speed="11.11" length="14.24" shape="622.01,797.88 635.94,794.90"/>
    </edge>
    <edge id=":1829603312_4" function="internal">
        <lane id=":1829603312_4_0" index="0" disallow="pedestrian tram rail_urban rail rail_electric rail_fast ship" speed="8.13" length="3.82" shape="622.01,797.88 625.57,796.50"/>
    </edge>
    <edge id=":1829603312_5" function="internal">
        <lane id=":1829603312_5_0" index="0" disallow="pedestrian tram rail_urban rail rail_electric rail_fast ship" speed="3.65" length="1.44" shape="622.01,797.88 623.00,796.83"/>
    </edge>
    <edge id=":1829603312_10" function="internal">
        <lane id=":1829603312_10_0" index="0" disallow="pedestrian tram rail_urban rail rail_electric rail_fast ship" speed="8.13" length="10.35" shape="625.57,796.50 627.89,794.27 628.97,791.21 628.80,787.32"/>
    </edge>
    <edge id=":1829603312_11" function="internal">
        <lane id=":1829603312_11_0" index="0" disallow="pedestrian tram rail_urban rail rail_electric rail_fast ship" speed="3.65" length="3.23" shape="623.00,796.83 623.21,795.96 622.64,795.27 621.29,794.76"/>
    </edge>
    <edge id=":1829603312_6" function="internal">
        <lane id=":1829603312_6_0" index="0" disallow="pedestrian tram rail_urban rail rail_electric rail_fast ship" speed="6.66" length="9.18" shape="625.65,787.90 625.76,790.43 625.07,792.42 623.59,793.87 621.29,794.76"/>
    </edge>
    <edge id=":1829603312_7" function="internal">
        <lane id=":1829603312_7_0" index="0" disallow="pedestrian tram rail_urban rail rail_electric rail_fast ship" speed="7.98" length="14.24" shape="625.65,787.90 626.89,791.60 629.02,794.01 632.04,795.11 635.94,794.90"/>
    </edge>
    <edge id=":1829603312_8" function="internal">
        <lane id=":1829603312_8_0" index="0" disallow="pedestrian tram rail_urban rail rail_electric rail_fast ship" speed="3.65" length="4.67" shape="625.65,787.90 626.65,788.93 627.51,789.18 628.23,788.64 628.80,787.32"/>
    </edge>
    <edge id=":1829603334_0" function="internal">
        <lane id=":1829603334_0_0" index="0" disallow="pedestrian tram rail_urban rail rail_electric rail_fast ship" speed="6.20" length="9.05" shape="708.74,774.77 706.21,774.96 704.35,774.27 703.15,772.68 702.62,770.20"/>
    </edge>
    <edge id=":1829603334_1" function="internal">
        <lane id=":1829603334_1_0" index="0" disallow="pedestrian tram rail_urban rail rail_electric rail_fast ship" speed="11.11" length="14.48" shape="708.74,774.77 694.61,777.95"/>
    </edge>
    <edge id=":1829603334_2" function="internal">
        <lane id=":1829603334_2_0" index="0" disallow="pedestrian tram rail_urban rail rail_electric rail_fast ship" speed="3.65" length="1.44" shape="708.74,774.77 707.74,775.81"/>
    </edge>
    <edge id=":1829603334_9" function="internal">
        <lane id=":1829603334_9_0" index="0" disallow="pedestrian tram rail_urban rail rail_electric rail_fast ship" speed="3.65" length="3.23" shape="707.74,775.81 707.53,776.68 708.09,777.37 709.44,777.89"/>
    </edge>
    <edge id=":1829603334_3" function="internal">
        <lane id=":1829603334_3_0" index="0" disallow="pedestrian tram rail_urban rail rail_electric rail_fast ship" speed="11.11" length="14.48" shape="695.32,781.07 709.44,777.89"/>
    </edge>
    <edge id=":1829603334_4" function="internal">
        <lane id=":1829603334_4_0" index="0" disallow="pedestrian tram rail_urban rail rail_electric rail_fast ship" speed="8.56" length="3.84" shape="695.32,781.07 698.74,779.72 698.86,779.61"/>
    </edge>
    <edge id=":1829603334_5" function="internal">
        <lane id=":1829603334_5_0" index="0" disallow="pedestrian tram rail_urban rail rail_electric rail_fast ship" speed="3.65" length="1.44" shape="695.32,781.07 696.31,780.02"/>
    </edge>
    <edge id=":1829603334_10" function="internal">
        <lane id=":1829603334_10_0" index="0" disallow="pedestrian tram rail_urban rail rail_electric rail_fast ship" speed="8.56" length="10.63" shape="698.86,779.61 701.10,777.46 702.39,774.29 702.62,770.20"/>
    </edge>
    <edge id=":1829603334_11" function="internal">
        <lane id=":1829603334_11_0" index="0" disallow="pedestrian tram rail_urban rail rail_electric rail_fast ship" speed="3.65" length="3.23" shape="696.31,780.02 696.53,779.16 695.96,778.46 694.61,777.95"/>
    </edge>
    <edge id=":1829603334_6" function="internal">
        <lane id=":1829603334_6_0" index="0" disallow="pedestrian tram rail_urban rail rail_electric rail_fast ship" speed="7.17" length="9.87" shape="699.43,770.41 699.29,773.27 698.44,775.47 696.88,777.03 694.61,777.95"/>
    </edge>
    <edge id=":1829603334_7" function="internal">
        <lane id=":1829603334_7_0" index="0" disallow="pedestrian tram rail_urban rail rail_electric rail_fast ship" speed="7.75" length="14.81" shape="699.43,770.41 700.29,774.47 702.25,777.07 705.30,778.21 709.44,777.89"/>
    </edge>
    <edge id=":1829603334_8" function="internal">
        <lane id=":1829603334_8_0" index="0" disallow="pedestrian tram rail_urban rail rail_electric rail_fast ship" speed="3.65" length="4.67" shape="699.43,770.41 700.31,771.56 701.13,771.90 701.90,771.45 702.62,770.20"/>
    </edge>
    <edge id=":1829603338_0" function="internal">
        <lane id=":1829603338_0_0" index="0" disallow="pedestrian tram rail_urban rail rail_electric rail_fast ship" speed="6.52" length="9.14" shape="757.43,299.47 756.75,301.91 755.47,303.54 753.59,304.36 751.11,304.37"/>
    </edge>
    <edge id=":1829603338_1" function="internal">
        <lane id=":1829603338_1_0" index="0" disallow="pedestrian tram rail_urban rail rail_electric rail_fast ship" speed="13.89" length="14.52" shape="757.43,299.47 755.57,313.87"/>
    </edge>
    <edge id=":1829603338_2" function="internal">
        <lane id=":1829603338_2_0" index="0" disallow="pedestrian tram rail_urban rail rail_electric rail_fast ship" speed="7.92" length="4.14" shape="757.43,299.47 757.47,303.44 757.54,303.59"/>
    </edge>
    <edge id=":1829603338_3" function="internal">